15

C     -1.732029    0.936380   -0.263792
C     -1.245611   -0.344691    0.391086
C     -0.148074   -0.937125   -0.457221
C      1.027643   -0.046934   -0.629060
C      1.844380    0.452547    0.446822
O      2.258388   -0.751434   -0.176074
H     -1.067690    1.750219    0.141672
H     -2.755656    1.196351    0.079326
H     -2.067563   -1.085155    0.476452
H     -0.915304   -0.131051    1.435284
H      0.059518   -1.940253   -0.041359
H     -0.607629   -1.129605   -1.454078
H      1.256952    0.317801   -1.671129
H      2.555070    1.272745    0.223946
H      1.537606    0.440206    1.498126
