15

C     -1.785893   -0.046706   -0.464863
C     -0.937810   -0.333152    0.759089
C      0.144316    0.727972    0.807356
C      0.975441    0.659962   -0.435134
C      1.722261   -0.581902   -0.780463
O      0.542355   -0.244043   -1.421873
H     -2.508157    0.772451   -0.256115
H     -2.330991   -0.946844   -0.834617
H     -0.452539   -1.325367    0.599703
H     -1.495853   -0.266289    1.697996
H      0.742671    0.679978    1.749723
H     -0.418872    1.705993    0.774439
H      1.457019    1.597570   -0.751818
H      1.746728   -1.360872   -0.002450
H      2.599325   -0.527081   -1.440972