15

C     -2.401297    0.175827    0.325686
C     -1.071834    0.932706    0.211540
C     -0.029603   -0.146964    0.074394
C      1.352566    0.392408   -0.051330
C      2.491592   -0.527906   -0.194184
O      1.891591    0.022175   -1.379551
H     -3.250197    0.876523    0.293971
H     -2.476569   -0.624255   -0.432228
H     -2.376630   -0.346718    1.307048
H     -1.080761    1.615426   -0.663983
H     -0.070841   -0.717123    1.036609
H     -0.333004   -0.867012   -0.706648
H      1.555626    1.448312    0.213667
H      3.524469   -0.140915   -0.085702
H      2.274891   -1.580814    0.050711
