 15

C   2.305377  -0.085068  -0.869960
C   0.975159  -0.540028  -0.267730
C   0.140366   0.696749  -0.067327
C  -1.208682   0.428285   0.520937
C  -2.090389  -0.486698  -0.306237
O  -1.554438  -0.853257   0.923356
H   2.383503   1.021667  -0.915261
H   3.141287  -0.429267  -0.212361
H   0.492146  -1.192188  -1.010228
H   1.149738  -1.105647   0.658222
H   0.105161   1.215729  -1.050010
H   0.693340   1.353101   0.634097
H  -1.716243   1.231644   1.064872
H  -1.656787  -1.052447  -1.157315
H  -3.159539  -0.202576  -0.372053