 9

C     -1.426437   -0.116472    0.143448
C     -0.168810    0.695223   -0.013393
C      1.079216   -0.160360   -0.110366
O      0.623552    0.636164   -1.130167
H     -1.224172   -0.800259    1.014470
H     -1.660391   -0.739831   -0.750880
H     -0.102433    1.607032    0.586759
H      0.972641   -1.257437   -0.295818
H      1.906833    0.135940    0.555945
